1BMK - prepared_ligand
                    3D
 Schrodinger Suite 2022-2.
 39 42  0  0  1  0            999 V2000
    8.0629   11.0588   30.4796 F   0  0  0  0  0  0
    6.2015   12.4519   31.0224 C   0  0  0  0  0  0
    6.8626   11.5824   30.1368 C   0  0  0  0  0  0
    6.2577   11.2372   28.9125 C   0  0  0  0  0  0
    4.9718   11.7219   28.5980 C   0  0  0  0  0  0
    4.3104   12.5989   29.4837 C   0  0  0  0  0  0
    4.9330   12.9660   30.6939 C   0  0  0  0  0  0
    1.6078    9.0407   30.4028 C   0  0  0  0  0  0
    0.5816    8.5331   29.6896 N   0  0  0  0  0  0
    0.0342    9.3425   28.7898 C   0  0  0  0  0  0
    0.3910   10.5917   28.5089 N   0  0  0  0  0  0
    1.4040   11.1256   29.2272 C   0  0  0  0  0  0
    2.0610   10.3583   30.2124 C   0  0  0  0  0  0
   -1.0268    8.8389   28.0885 N   0  0  0  0  0  0
    0.8696   13.5393   28.6031 N   0  0  0  0  0  0
    1.7698   12.5319   28.9905 C   0  0  0  0  0  0
    3.0002   13.1500   29.1457 C   0  0  0  0  0  0
    2.8631   14.5164   28.9130 N   0  0  0  0  0  0
    1.5870   14.6690   28.5950 C   0  0  0  0  0  0
   -0.5508   13.4720   28.2922 C   0  0  0  0  0  0
   -0.7956   13.2602   26.8082 C   0  0  0  0  0  0
   -2.0235   13.8319   26.1366 C   0  0  0  0  0  0
   -0.6616   14.4047   25.8299 C   0  0  0  0  0  0
    6.6615   12.7083   31.9667 H   0  0  0  0  0  0
    6.7652   10.5679   28.2316 H   0  0  0  0  0  0
    4.5000   11.4355   27.6696 H   0  0  0  0  0  0
    4.4273   13.6319   31.3787 H   0  0  0  0  0  0
    2.0635    8.4055   31.1457 H   0  0  0  0  0  0
    2.8566   10.7552   30.8212 H   0  0  0  0  0  0
   -1.5193    8.0460   28.4846 H   0  0  0  0  0  0
   -1.5933    9.5015   27.5832 H   0  0  0  0  0  0
    1.1663   15.6354   28.3514 H   0  0  0  0  0  0
   -1.0318   12.6849   28.8705 H   0  0  0  0  0  0
   -1.0200   14.4065   28.6041 H   0  0  0  0  0  0
   -0.4585   12.2905   26.4409 H   0  0  0  0  0  0
   -2.5017   13.2377   25.3609 H   0  0  0  0  0  0
   -2.6967   14.4335   26.7465 H   0  0  0  0  0  0
   -0.4267   15.3905   26.2270 H   0  0  0  0  0  0
   -0.2362   14.1851   24.8527 H   0  0  0  0  0  0
  1  3  1  0  0  0
  2  3  2  0  0  0
  2  7  1  0  0  0
  2 24  1  0  0  0
  3  4  1  0  0  0
  4  5  2  0  0  0
  4 25  1  0  0  0
  5  6  1  0  0  0
  5 26  1  0  0  0
  6  7  2  0  0  0
  6 17  1  0  0  0
  7 27  1  0  0  0
  8  9  2  0  0  0
  8 13  1  0  0  0
  8 28  1  0  0  0
  9 10  1  0  0  0
 10 11  2  0  0  0
 10 14  1  0  0  0
 11 12  1  0  0  0
 12 13  2  0  0  0
 12 16  1  0  0  0
 13 29  1  0  0  0
 14 30  1  0  0  0
 14 31  1  0  0  0
 15 16  1  0  0  0
 15 19  1  0  0  0
 15 20  1  0  0  0
 16 17  2  0  0  0
 17 18  1  0  0  0
 18 19  2  0  0  0
 19 32  1  0  0  0
 20 21  1  0  0  0
 20 33  1  0  0  0
 20 34  1  0  0  0
 21 22  1  0  0  0
 21 23  1  0  0  0
 21 35  1  0  0  0
 22 23  1  0  0  0
 22 36  1  0  0  0
 22 37  1  0  0  0
 23 38  1  0  0  0
 23 39  1  0  0  0
M  END
> <s_m_entry_id>
8

> <s_m_entry_name>
1bmk.1_ligand

> <s_pdb_PDB_TITLE>
THE COMPLEX STRUCTURE OF THE MAP KINASE P38/SB218655

> <s_pdb_PDB_ID>
1BMK

> <r_pdb_PDB_CRYST1_a>
45.58

> <r_pdb_PDB_CRYST1_b>
85.22

> <r_pdb_PDB_CRYST1_c>
123.5

> <r_pdb_PDB_CRYST1_alpha>
90

> <r_pdb_PDB_CRYST1_beta>
90

> <r_pdb_PDB_CRYST1_gamma>
90

> <s_pdb_PDB_CRYST1_Space_Group>
P 21 21 21

> <i_pdb_PDB_CRYST1_z>
4

> <s_pdb_PDB_CLASSIFICATION>
TRANSFERASE

> <s_pdb_PDB_DEPOSITION_DATE>
23-JUL-98

> <s_pdb_PDB_format_version>
3.30

> <r_pdb_PDB_R>
0.189

> <r_pdb_PDB_Rfree>
0.245

> <r_pdb_PDB_RESOLUTION>
2.4

> <s_pdb_PDB_EXPDTA>
X-RAY DIFFRACTION

> <r_pdb_PDB_EXPDTA_TEMPERATURE>
100

> <r_pdb_PDB_EXPDTA_PH>
7.4

> <s_pdb_PDB_REMARK_350_Biomolecule_1_Transform_1_Chains>
A

> <s_pdb_PDB_REMARK_350_Biomolecule_1_Transform_1_Matrix_1>
1.000000 0.000000 0.000000   0.000000;0.000000 1.000000 0.000000   0.000000;0.000000 0.000000 1.000000   0.000000

> <s_m_Source_Path>
/Users/pwalters

> <s_m_Source_File>
1bmk.pdb

> <i_m_Source_File_Index>
1

> <b_ppw_prepared>
1

> <s_ppw_prepared_with_version>
2022-2

> <r_ppw_preprocess_pH>
7

> <s_ppw_het_states>
eJztk1GOwjAMRK9S9btCtbFpy1VW3ADtH1+Iu5PEwGukvcDumg80nkqZZDxzH2U8D1/lp+vRpmG+TEOFDjwBF+AK3D7QZqAAFXgEomaoGWqGmqFmqDlqjpqj5qg5ao6aN7WKX8+P5womBKF7oj5S8CZsERwKcxSfwiLBrThD94RzaHUuTNOO4GLtW/NSsDUc1Y7gYu1bM1rwPA7VjuCmtv5IVH97YnePz1uUFcV2hEXFGcqOYj3CpmJJPcHz3SEKMx9OSz32PlZnSpoLsWlRqLO9Z2+zS8yL2WMavm/Xa/y3CGQFsgJZgaxAViAr8Jsr8DYoK/C/KqCHpSjvKlAI840KxJyRz8hn5DPyGfmMfEY+I/9HI395PAFiyFq1

> <r_i_Potential_Energy-OPLS_2005>
-1477.23905892568

> <r_i_RMS_Derivative-OPLS_2005>
0.164320691534589

> <r_i_Max_Derivative-OPLS_2005>
3.39528793929275

> <r_i_Stretch_Energy-OPLS_2005>
138.213359857391

> <r_i_Bend_Energy-OPLS_2005>
597.868876247051

> <r_i_LJ-14_Energy-OPLS_2005>
1646.33647269867

> <r_i_El-14_Energy-OPLS_2005>
530.328317208589

> <r_i_Van_der_Waals_Energy-OPLS_2005>
-3434.9804836765

> <r_i_Electrostatic_Energy-OPLS_2005>
-2180.38065221845

> <r_i_Dihedral_Energy-OPLS_2005>
1081.23505936515

> <r_i_target_temperature>
298

> <s_m_job_name>
glide-dock_SP_2

> <s_i_glide_gridfile>
glide-grid_1

> <i_i_glide_lignum>
1

> <i_i_glide_rotatable_bonds>
4

> <r_i_docking_score>
-8.70983247263335

> <r_i_glide_ligand_efficiency>
-0.378688368375363

> <r_i_glide_ligand_efficiency_sa>
-1.07693934535098

> <r_i_glide_ligand_efficiency_ln>
-2.10611646827717

> <r_i_glide_gscore>
-8.70983247263335

> <r_i_glide_lipo>
-2.73024065517316

> <r_i_glide_hbond>
-0.653182626639276

> <r_i_glide_metal>
0

> <r_i_glide_rewards>
-2.93123710390357

> <r_i_glide_evdw>
-36.910270690918

> <r_i_glide_ecoul>
-8.73058986663818

> <r_i_glide_erotb>
0.773933652715608

> <r_i_glide_esite>
-0.0140037250913258

> <r_i_glide_emodel>
-68.3195685725668

> <r_i_glide_energy>
-45.6408605575562

> <r_i_glide_einternal>
2.14503026008606

> <i_i_glide_confnum>
129

> <i_i_glide_posenum>
259

> <r_i_glide_eff_state_penalty>
0

> <s_m_subgroup_title>
glide-dock_SP_2_pv1

> <s_m_subgroupid>
glide-dock_SP_2_pv1

> <b_m_subgroup_collapsed>
0

$$$$
